SOLVER= INC_RANS
KIND_TURB_MODEL= SA
MATH_PROBLEM= DISCRETE_ADJOINT
RESTART_SOL= NO
INC_DENSITY_INIT= 1
INC_VELOCITY_INIT= ( 1.0, 0.0, 0.0 )
INC_NONDIM= INITIAL_VALUES
INC_DENSITY_REF= 1.0
INC_VELOCITY_REF= 1.0
INC_TEMPERATURE_REF= 1.0
VISCOSITY_MODEL= CONSTANT_VISCOSITY
MU_CONSTANT= 1.0e-3
GAMMA_VALUE= 1.4
GAS_CONSTANT= 287.87
REF_ORIGIN_MOMENT_X= 0.25
REF_ORIGIN_MOMENT_Y= 0.00
REF_ORIGIN_MOMENT_Z= 0.00
REF_LENGTH= 1.0
REF_AREA= 1.0
REF_DIMENSIONALIZATION= DIMENSIONAL
MARKER_HEATFLUX= ( ground, 0.0, platform, 0.0, bump, 0.0)
INC_INLET_TYPE= VELOCITY_INLET
MARKER_INLET= (inlet, 0.0, 1.0, 1.0, 0.0, 0.0)
INC_OUTLET_TYPE= PRESSURE_OUTLET PRESSURE_OUTLET
MARKER_OUTLET= (outlet, 0.0, top, 0.0)
MARKER_PLOTTING= ( bump )
MARKER_MONITORING= ( platform, bump )
MARKER_DESIGNING= ( platform, bump )
NUM_METHOD_GRAD= GREEN_GAUSS
OBJECTIVE_FUNCTION= DRAG
CFL_NUMBER= 25.0
CFL_ADAPT= NO
CFL_ADAPT_PARAM= ( 0.1, 2.0, 10.0, 1e10 )
ITER= 400
LINEAR_SOLVER= FGMRES
LINEAR_SOLVER_PREC= ILU
LINEAR_SOLVER_ERROR= 1E-10
LINEAR_SOLVER_ITER= 10
MGLEVEL= 0
MGCYCLE= V_CYCLE
MG_PRE_SMOOTH= ( 1, 2, 3, 3 )
MG_POST_SMOOTH= ( 0, 0, 0, 0 )
MG_CORRECTION_SMOOTH= ( 0, 0, 0, 0 )
MG_DAMP_RESTRICTION= 1.0
MG_DAMP_PROLONGATION= 1.0
CONV_NUM_METHOD_FLOW= JST
MUSCL_FLOW= YES
SLOPE_LIMITER_FLOW= VENKATAKRISHNAN_WANG
JST_SENSOR_COEFF= ( 0.5, 0.02 )
TIME_DISCRE_FLOW= EULER_IMPLICIT
CONV_NUM_METHOD_TURB= SCALAR_UPWIND
MUSCL_TURB= NO
SLOPE_LIMITER_TURB= VENKATAKRISHNAN
TIME_DISCRE_TURB= EULER_IMPLICIT
CONV_NUM_METHOD_ADJFLOW= JST
MUSCL_ADJFLOW= YES
SLOPE_LIMITER_ADJFLOW= NONE
CFL_REDUCTION_ADJFLOW= 0.01
TIME_DISCRE_ADJFLOW= EULER_IMPLICIT
DV_KIND= HICKS_HENNE
DV_MARKER= ( ( bump ) )
DV_PARAM= ( 0.0, 0.05) 
DV_VALUE= 0.001
DEFORM_LINEAR_SOLVER_ITER= 500
DEFORM_NONLINEAR_ITER= 1
DEFORM_LINEAR_SOLVER_ERROR= 1E-14
DEFORM_CONSOLE_OUTPUT= YES
DEFORM_STIFFNESS_TYPE= INVERSE_VOLUME
CONV_FIELD= RMS_PRESSURE
CONV_RESIDUAL_MINVAL= -12
CONV_STARTITER= 10
CONV_CAUCHY_ELEMS= 100
CONV_CAUCHY_EPS= 1E-6
SCREEN_OUTPUT= (INNER_ITER, WALL_TIME, RMS_PRESSURE, RMS_NU_TILDE, DRAG)
MESH_FILENAME= mesh.su2
MESH_FORMAT= SU2
MESH_OUT_FILENAME= mesh_out.su2
SOLUTION_FILENAME= solution_flow.dat
SOLUTION_ADJ_FILENAME= solution_adj.dat
TABULAR_FORMAT= CSV
CONV_FILENAME= history
RESTART_FILENAME= restart_flow.dat
RESTART_ADJ_FILENAME= restart_adj.dat
VOLUME_FILENAME= flow
VOLUME_ADJ_FILENAME= adjoint
GRAD_OBJFUNC_FILENAME= of_grad.dat
SURFACE_FILENAME= surface_flow
SURFACE_ADJ_FILENAME= surface_adjoint
OUTPUT_WRT_FREQ= 400
OUTPUT_FILES= (RESTART, PARAVIEW_ASCII, SURFACE_PARAVIEW_ASCII)
OPT_OBJECTIVE= DRAG * 1 
DV_VALUE_NEW= 0.001
DV_VALUE_OLD= 0.0
OPT_ITERATIONS= 100
OPT_ACCURACY= 1e-10
OPT_RELAX_FACTOR= 1.0
OPT_GRADIENT_FACTOR= 1.0
OPT_BOUND_UPPER= 10000000000.0
OPT_BOUND_LOWER= -10000000000.0
OPT_COMBINE_OBJECTIVE= NO
OPT_CONSTRAINT= NONE
VALUE_OBJFUNC_FILENAME= of_eval.dat
AOA= 0.0
SIDESLIP_ANGLE= 0.0
MACH_NUMBER= 0.0
REYNOLDS_NUMBER= 0.0
TARGET_CL= 0.0
FREESTREAM_PRESSURE= 101325.0
FREESTREAM_TEMPERATURE= 288.15
MULTIPOINT_WEIGHT= (1.0)
MULTIPOINT_MACH_NUMBER= (0.0)
MULTIPOINT_AOA= (0.0)
MULTIPOINT_SIDESLIP_ANGLE= (0.0)
MULTIPOINT_REYNOLDS_NUMBER= (0.0)
MULTIPOINT_TARGET_CL= (0.0)
MULTIPOINT_FREESTREAM_PRESSURE= (101325.0)
MULTIPOINT_FREESTREAM_TEMPERATURE= (288.15)
MULTIPOINT_OUTLET_VALUE= ( 0.0)
MULTIPOINT_MESH_FILENAME= (mesh.su2)
HISTORY_OUTPUT= ITER, RMS_RES, AERO_COEFF
DEFINITION_DV= ( 30 , 1.0 | WING  | 0.0 , 0.05  )
NUMBER_PART= 1
NZONES= 1
GRADIENT_METHOD= DISCRETE_ADJOINT
